<?xml version="1.0" encoding="UTF-8"?>

<!-- generated on 2024-04-08 10:35:12 by Eclipse SUMO netconvert Version v1_19_0+1462-65a4e314ace
<configuration xmlns:xsi="http://www.w3.org/2001/XMLSchema-instance" xsi:noNamespaceSchemaLocation="http://sumo.dlr.de/xsd/netconvertConfiguration.xsd">

    <input>
        <osm-files value="madrid.osm"/>
    </input>

    <output>
        <output-file value="net.net.xml"/>
    </output>

    <projection>
        <proj.utm value="true"/>
    </projection>

</configuration>
-->

<net version="1.20" junctionCornerDetail="5" limitTurnSpeed="5.50" xmlns:xsi="http://www.w3.org/2001/XMLSchema-instance" xsi:noNamespaceSchemaLocation="http://sumo.dlr.de/xsd/net_file.xsd">

    <location netOffset="-441043.67,-4474663.15" convBoundary="0.00,0.00,1949.23,3123.05" origBoundary="-3.695040,40.420547,-3.672088,40.448704" projParameter="+proj=utm +zone=30 +ellps=WGS84 +datum=WGS84 +units=m +no_defs"/>

    <type id="highway.cycleway" priority="1" numLanes="1" speed="5.56" allow="bicycle" oneway="0" width="2.00"/>
    <type id="highway.footway" priority="1" numLanes="1" speed="2.78" allow="pedestrian" oneway="1" width="2.00"/>
    <type id="highway.primary" priority="12" numLanes="2" speed="27.78" disallow="tram rail_urban rail rail_electric rail_fast ship" oneway="0"/>
    <type id="highway.residential" priority="3" numLanes="1" speed="13.89" disallow="tram rail_urban rail rail_electric rail_fast ship" oneway="0"/>
    <type id="highway.secondary" priority="11" numLanes="1" speed="27.78" disallow="tram rail_urban rail rail_electric rail_fast ship" oneway="0"/>
    <type id="highway.service" priority="1" numLanes="1" speed="5.56" allow="pedestrian delivery bicycle" oneway="0"/>
    <type id="highway.steps" priority="1" numLanes="1" speed="1.39" allow="pedestrian" oneway="1" width="2.00"/>
    <type id="highway.tertiary" priority="10" numLanes="1" speed="22.22" disallow="tram rail_urban rail rail_electric rail_fast ship" oneway="0"/>
    <type id="railway.highspeed" priority="21" numLanes="1" speed="69.44" allow="rail_fast" oneway="1"/>
    <type id="railway.rail" priority="20" numLanes="1" speed="44.44" allow="rail" oneway="1"/>

    <edge id=":10550528448_0" function="internal">
        <lane id=":10550528448_0_0" index="0" disallow="tram rail_urban rail rail_electric rail_fast ship" speed="8.33" length="9.40" shape="567.19,817.94 557.81,818.64"/>
    </edge>
    <edge id=":10550528448_1" function="internal">
        <lane id=":10550528448_1_0" index="0" allow="pedestrian delivery bicycle" speed="6.15" length="7.80" shape="567.19,817.94 564.44,817.95 562.43,817.51 561.16,816.62 560.63,815.28"/>
    </edge>
    <edge id=":10550528448_2" function="internal">
        <lane id=":10550528448_2_0" index="0" allow="pedestrian delivery bicycle" speed="6.05" length="7.83" shape="563.81,814.96 563.56,816.39 562.48,817.48 560.56,818.23 557.81,818.64"/>
    </edge>
    <edge id=":10550528448_3" function="internal">
        <lane id=":10550528448_3_0" index="0" allow="pedestrian delivery bicycle" speed="3.65" length="4.67" shape="563.81,814.96 563.14,816.23 562.38,816.71 561.55,816.39 560.63,815.28"/>
    </edge>
    <edge id=":10550528449_0" function="internal">
        <lane id=":10550528449_0_0" index="0" allow="pedestrian delivery bicycle" speed="3.65" length="4.67" shape="554.64,756.20 555.31,754.93 556.07,754.45 556.90,754.77 557.82,755.88"/>
    </edge>
    <edge id=":10560505546_0" function="internal">
        <lane id=":10560505546_0_0" index="0" allow="rail rail_electric rail_fast" speed="16.67" length="34.73" shape="410.66,689.15 417.36,723.23"/>
    </edge>
    <edge id=":10560505546_1" function="internal">
        <lane id=":10560505546_1_0" index="0" allow="rail rail_electric rail_fast" speed="30.55" length="34.72" shape="410.66,689.15 411.53,695.92 412.54,706.40 413.46,716.90 414.05,723.71"/>
    </edge>
    <edge id=":10560505547_0" function="internal">
        <lane id=":10560505547_0_0" index="0" allow="rail rail_electric rail_fast" speed="16.67" length="3.00" shape="416.36,746.97 415.79,744.03"/>
    </edge>
    <edge id=":10560505548_0" function="internal">
        <lane id=":10560505548_0_0" index="0" allow="rail rail_electric rail_fast" speed="16.67" length="2.81" shape="426.34,798.07 425.80,795.31"/>
    </edge>
    <edge id=":10560505549_0" function="internal">
        <lane id=":10560505549_0_0" index="0" allow="rail rail_electric rail_fast" speed="16.67" length="30.06" shape="435.24,814.10 441.05,843.59"/>
    </edge>
    <edge id=":10560505549_1" function="internal">
        <lane id=":10560505549_1_0" index="0" allow="rail rail_electric rail_fast" speed="30.55" length="30.06" shape="431.98,814.94 433.91,820.74 436.73,829.21 439.44,837.72 441.05,843.59"/>
    </edge>
    <edge id=":1085874133_0" function="internal">
        <lane id=":1085874133_0_0" index="0" disallow="tram rail_urban rail rail_electric rail_fast ship" speed="6.63" length="8.75" shape="557.21,1181.03 557.92,1183.20 559.21,1184.70 561.08,1185.51 563.52,1185.64"/>
    </edge>
    <edge id=":1085874133_1" function="internal">
        <lane id=":1085874133_1_0" index="0" disallow="tram rail_urban rail rail_electric rail_fast ship" speed="13.89" length="10.58" shape="557.21,1181.03 559.21,1191.41"/>
    </edge>
    <edge id=":11486687684_0" function="internal">
        <lane id=":11486687684_0_0" index="0" allow="pedestrian delivery bicycle" speed="12.31" length="10.03" shape="721.31,1102.65 718.75,1101.43 716.75,1101.30 714.61,1101.72 711.64,1102.15"/>
    </edge>
    <edge id=":11486687684_1" function="internal">
        <lane id=":11486687684_1_0" index="0" allow="pedestrian delivery bicycle" speed="5.73" length="11.58" shape="721.31,1102.65 716.82,1099.65 714.12,1097.46 713.24,1096.09 714.16,1095.55"/>
    </edge>
    <edge id=":11486687684_2" function="internal">
        <lane id=":11486687684_2_0" index="0" disallow="tram rail_urban rail rail_electric rail_fast ship" speed="22.22" length="3.00" shape="714.63,1101.93 711.64,1102.15"/>
        <lane id=":11486687684_2_1" index="1" disallow="tram rail_urban rail rail_electric rail_fast ship" speed="22.22" length="3.00" shape="714.40,1098.74 711.40,1098.96"/>
    </edge>
    <edge id=":11486687684_4" function="internal">
        <lane id=":11486687684_4_0" index="0" disallow="tram rail_urban rail rail_electric rail_fast ship" speed="22.22" length="3.00" shape="710.94,1092.58 713.93,1092.36"/>
        <lane id=":11486687684_4_1" index="1" disallow="tram rail_urban rail rail_electric rail_fast ship" speed="22.22" length="3.00" shape="711.17,1095.77 714.16,1095.55"/>
    </edge>
    <edge id=":11563811456_0" function="internal">
        <lane id=":11563811456_0_0" index="0" disallow="tram rail_urban rail rail_electric rail_fast ship" speed="13.89" length="9.71" shape="358.97,1081.58 356.93,1072.09"/>
    </edge>
    <edge id=":11563811456_1" function="internal">
        <lane id=":11563811456_1_0" index="0" allow="pedestrian delivery bicycle" speed="5.84" length="8.72" shape="358.97,1081.58 358.62,1078.60 359.03,1076.53 360.20,1075.37 362.15,1075.13"/>
    </edge>
    <edge id=":11563811456_2" function="internal">
        <lane id=":11563811456_2_0" index="0" allow="pedestrian delivery bicycle" speed="7.13" length="8.50" shape="361.86,1078.32 360.18,1077.80 358.80,1076.59 357.71,1074.69 356.93,1072.09"/>
    </edge>
    <edge id=":11563811456_3" function="internal">
        <lane id=":11563811456_3_0" index="0" allow="pedestrian delivery bicycle" speed="3.65" length="4.67" shape="361.86,1078.32 360.74,1077.41 360.41,1076.58 360.88,1075.82 362.15,1075.13"/>
    </edge>
    <edge id=":11563811458_0" function="internal">
        <lane id=":11563811458_0_0" index="0" allow="pedestrian delivery bicycle" speed="3.65" length="4.67" shape="417.96,1018.88 418.56,1017.56 419.28,1017.04 420.13,1017.30 421.12,1018.36"/>
    </edge>
    <edge id=":11676998739_0" function="internal">
        <lane id=":11676998739_0_0" index="0" allow="pedestrian delivery bicycle" speed="5.56" length="3.78" shape="610.82,970.61 610.58,966.84"/>
    </edge>
    <edge id=":11676998739_1" function="internal">
        <lane id=":11676998739_1_0" index="0" allow="pedestrian delivery bicycle" speed="4.58" length="3.90" shape="610.82,970.61 610.98,969.89 611.53,969.34 612.48,968.97 613.83,968.77"/>
    </edge>
    <edge id=":1223809784_0" function="internal">
        <lane id=":1223809784_0_0" index="0" disallow="tram rail_urban rail rail_electric rail_fast ship" speed="13.89" length="5.33" shape="546.72,1119.95 547.73,1125.18"/>
    </edge>
    <edge id=":1223809793_0" function="internal">
        <lane id=":1223809793_0_0" index="0" disallow="tram rail_urban rail rail_electric rail_fast ship" speed="13.89" length="0.92" shape="575.26,1393.32 575.28,1393.78 575.29,1394.09 575.26,1394.40 575.21,1394.86"/>
        <lane id=":1223809793_0_1" index="1" disallow="tram rail_urban rail rail_electric rail_fast ship" speed="13.89" length="0.92" shape="572.06,1393.53 572.08,1393.81 572.08,1393.99 572.07,1394.18 572.03,1394.45"/>
        <lane id=":1223809793_0_2" index="2" disallow="tram rail_urban rail rail_electric rail_fast ship" speed="13.89" length="0.92" shape="568.87,1393.74 568.87,1393.83 568.88,1393.90 568.87,1393.96 568.86,1394.05"/>
    </edge>
    <edge id=":1223809824_0" function="internal">
        <lane id=":1223809824_0_0" index="0" disallow="tram rail_urban rail rail_electric rail_fast ship" speed="13.89" length="5.35" shape="520.85,1122.19 521.92,1127.41"/>
        <lane id=":1223809824_0_1" index="1" disallow="tram rail_urban rail rail_electric rail_fast ship" speed="13.89" length="5.35" shape="517.71,1122.82 518.79,1128.06"/>
        <lane id=":1223809824_0_2" index="2" disallow="tram rail_urban rail rail_electric rail_fast ship" speed="13.89" length="5.35" shape="514.58,1123.46 515.65,1128.71"/>
    </edge>
    <edge id=":1223809830_0" function="internal">
        <lane id=":1223809830_0_0" index="0" disallow="pedestrian tram rail_urban rail rail_electric rail_fast ship" speed="13.89" length="5.36" shape="506.08,1130.29 505.02,1125.02"/>
        <lane id=":1223809830_0_1" index="1" disallow="pedestrian tram rail_urban rail rail_electric rail_fast ship" speed="13.89" length="5.36" shape="509.22,1129.65 508.16,1124.39"/>
        <lane id=":1223809830_0_2" index="2" disallow="pedestrian tram rail_urban rail rail_electric rail_fast ship" speed="13.89" length="5.36" shape="512.36,1129.01 511.30,1123.77"/>
    </edge>
    <edge id=":1223809845_0" function="internal">
        <lane id=":1223809845_0_0" index="0" disallow="tram rail_urban rail rail_electric rail_fast ship" speed="13.89" length="5.01" shape="482.71,1133.82 481.69,1128.92"/>
    </edge>
    <edge id=":1278839071_0" function="internal">
        <lane id=":1278839071_0_0" index="0" disallow="tram rail_urban rail rail_electric rail_fast ship" speed="13.89" length="0.30" shape="394.32,597.85 394.26,597.55"/>
        <lane id=":1278839071_0_1" index="1" disallow="tram rail_urban rail rail_electric rail_fast ship" speed="13.89" length="0.30" shape="397.45,597.19 397.39,596.90"/>
        <lane id=":1278839071_0_2" index="2" disallow="tram rail_urban rail rail_electric rail_fast ship" speed="13.89" length="0.30" shape="400.58,596.53 400.52,596.24"/>
    </edge>
    <edge id=":1278839146_0" function="internal">
        <lane id=":1278839146_0_0" index="0" disallow="tram rail_urban rail rail_electric rail_fast ship" speed="13.89" length="0.30" shape="604.92,559.24 604.87,558.97"/>
        <lane id=":1278839146_0_1" index="1" disallow="tram rail_urban rail rail_electric rail_fast ship" speed="13.89" length="0.30" shape="608.08,558.74 608.03,558.45"/>
        <lane id=":1278839146_0_2" index="2" disallow="tram rail_urban rail rail_electric rail_fast ship" speed="13.89" length="0.30" shape="611.24,558.24 611.19,557.94"/>
        <lane id=":1278839146_0_3" index="3" disallow="tram rail_urban rail rail_electric rail_fast ship" speed="13.89" length="0.30" shape="614.40,557.75 614.35,557.43"/>
    </edge>
    <edge id=":1505106008_0" function="internal">
        <lane id=":1505106008_0_0" index="0" disallow="tram rail_urban rail rail_electric rail_fast ship" speed="8.33" length="0.10" shape="1327.95,1194.04 1327.95,1194.04"/>
    </edge>
    <edge id=":1505106010_0" function="internal">
        <lane id=":1505106010_0_0" index="0" disallow="tram rail_urban rail rail_electric rail_fast ship" speed="8.33" length="0.29" shape="1291.87,1196.56 1291.58,1196.58"/>
    </edge>
    <edge id=":1505184361_0" function="internal">
        <lane id=":1505184361_0_0" index="0" disallow="tram rail_urban rail rail_electric rail_fast ship" speed="5.56" length="0.10" shape="1271.25,924.97 1271.25,924.97"/>
    </edge>
    <edge id=":1505184376_0" function="internal">
        <lane id=":1505184376_0_0" index="0" disallow="tram rail_urban rail rail_electric rail_fast ship" speed="10.03" length="9.46" shape="1256.58,1065.83 1254.52,1064.43 1252.81,1063.99 1250.92,1064.10 1248.31,1064.37"/>
        <lane id=":1505184376_0_1" index="1" disallow="tram rail_urban rail rail_electric rail_fast ship" speed="10.75" length="9.46" shape="1256.58,1065.83 1254.36,1063.75 1252.75,1062.22 1250.93,1061.33 1248.09,1061.18"/>
    </edge>
    <edge id=":1505184376_2" function="internal">
        <lane id=":1505184376_2_0" index="0" disallow="tram rail_urban rail rail_electric rail_fast ship" speed="8.39" length="11.60" shape="1256.58,1065.83 1253.91,1062.72 1253.05,1059.34 1253.99,1055.68 1254.12,1055.49"/>
    </edge>
    <edge id=":1505184376_5" function="internal">
        <lane id=":1505184376_5_0" index="0" disallow="tram rail_urban rail rail_electric rail_fast ship" speed="8.39" length="4.57" shape="1254.12,1055.49 1256.73,1051.75"/>
    </edge>
    <edge id=":1505184376_3" function="internal">
        <lane id=":1505184376_3_0" index="0" disallow="tram rail_urban rail rail_electric rail_fast ship" speed="10.62" length="10.03" shape="1247.64,1054.80 1250.63,1054.68 1252.78,1054.49 1254.63,1053.69 1256.73,1051.75"/>
    </edge>
    <edge id=":1505184376_4" function="internal">
        <lane id=":1505184376_4_0" index="0" disallow="tram rail_urban rail rail_electric rail_fast ship" speed="3.65" length="1.44" shape="1247.86,1057.99 1249.12,1058.70"/>
    </edge>
    <edge id=":1505184376_6" function="internal">
        <lane id=":1505184376_6_0" index="0" disallow="tram rail_urban rail rail_electric rail_fast ship" speed="3.65" length="3.23" shape="1249.12,1058.70 1249.57,1059.47 1249.23,1060.30 1248.09,1061.18"/>
    </edge>
    <edge id=":1689543016_0" function="internal">
        <lane id=":1689543016_0_0" index="0" allow="bicycle" speed="5.08" length="4.33" width="2.00" shape="680.79,963.35 681.33,964.47 682.03,965.26 682.91,965.70 683.95,965.80"/>
    </edge>
    <edge id=":1689543016_1" function="internal">
        <lane id=":1689543016_1_0" index="0" allow="bicycle" speed="2.78" length="6.94" width="2.00" shape="680.79,963.35 681.40,965.29 681.57,966.70 681.33,968.12 680.70,970.06"/>
    </edge>
    <edge id=":1689543016_2" function="internal">
        <lane id=":1689543016_2_0" index="0" disallow="tram rail_urban rail rail_electric rail_fast ship" speed="13.89" length="3.89" shape="680.11,966.73 683.99,966.40"/>
    </edge>
    <edge id=":1689543016_3" function="internal">
        <lane id=":1689543016_3_0" index="0" allow="bicycle" speed="3.87" length="3.37" width="2.00" shape="680.18,967.32 680.78,967.43 681.07,967.93 681.04,968.80 680.70,970.06"/>
    </edge>
    <edge id=":1689543018_0" function="internal">
        <lane id=":1689543018_0_0" index="0" allow="bicycle" speed="4.64" length="4.09" width="2.00" shape="707.27,1103.05 706.19,1103.29 705.44,1103.82 705.03,1104.65 704.95,1105.78"/>
    </edge>
    <edge id=":1689543018_1" function="internal">
        <lane id=":1689543018_1_0" index="0" disallow="tram rail_urban rail rail_electric rail_fast ship" speed="22.22" length="4.63" shape="707.23,1102.46 702.73,1102.89"/>
        <lane id=":1689543018_1_1" index="1" disallow="tram rail_urban rail rail_electric rail_fast ship" speed="22.22" length="4.63" shape="707.02,1099.26 702.31,1099.72"/>
    </edge>
    <edge id=":1689543018_3" function="internal">
        <lane id=":1689543018_3_0" index="0" allow="bicycle" speed="7.11" length="3.83" width="2.00" shape="703.36,1090.18 706.56,1092.28"/>
    </edge>
    <edge id=":1689543018_4" function="internal">
        <lane id=":1689543018_4_0" index="0" allow="bicycle" speed="2.78" length="15.71" width="2.00" shape="703.36,1090.18 703.94,1092.73 704.43,1097.83 704.79,1103.01 704.95,1105.78"/>
    </edge>
    <edge id=":1689543018_5" function="internal">
        <lane id=":1689543018_5_0" index="0" allow="bicycle" speed="6.77" length="16.54" width="2.00" shape="703.36,1090.18 707.60,1093.99 708.85,1096.96 707.11,1099.06 702.39,1100.32"/>
    </edge>
    <edge id=":1689543018_6" function="internal">
        <lane id=":1689543018_6_0" index="0" disallow="tram rail_urban rail rail_electric rail_fast ship" speed="22.22" length="5.05" shape="701.47,1093.38 706.60,1092.88"/>
        <lane id=":1689543018_6_1" index="1" disallow="tram rail_urban rail rail_electric rail_fast ship" speed="22.22" length="5.05" shape="701.89,1096.55 706.81,1096.07"/>
    </edge>
    <edge id=":1689543018_8" function="internal">
        <lane id=":1689543018_8_0" index="0" allow="bicycle" speed="6.58" length="2.69" width="2.00" shape="701.97,1097.14 703.03,1097.57 703.77,1098.93"/>
    </edge>
    <edge id=":1689543018_9" function="internal">
        <lane id=":1689543018_9_0" index="0" allow="bicycle" speed="6.58" length="6.98" width="2.00" shape="703.77,1098.93 703.88,1099.15 704.52,1101.89 704.95,1105.78"/>
    </edge>
    <edge id=":1689543023_0" function="internal">
        <lane id=":1689543023_0_0" index="0" allow="bicycle" speed="4.68" length="4.10" width="2.00" shape="711.75,1237.92 710.65,1238.15 709.88,1238.68 709.44,1239.50 709.34,1240.61"/>
    </edge>
    <edge id=":1689543023_1" function="internal">
        <lane id=":1689543023_1_0" index="0" disallow="tram rail_urban rail rail_electric rail_fast ship" speed="8.33" length="4.32" shape="711.71,1237.32 707.39,1237.62"/>
    </edge>
    <edge id=":1689543023_2" function="internal">
        <lane id=":1689543023_2_0" index="0" allow="bicycle" speed="2.78" length="6.24" width="2.00" shape="709.02,1234.38 709.34,1240.61"/>
    </edge>
    <edge id=":1689543023_3" function="internal">
        <lane id=":1689543023_3_0" index="0" allow="bicycle" speed="4.71" length="4.57" width="2.00" shape="709.02,1234.38 708.99,1236.01 708.72,1237.20 708.20,1237.93 707.43,1238.22"/>
    </edge>
    <edge id=":1760085662_0" function="internal">
        <lane id=":1760085662_0_0" index="0" disallow="tram rail_urban rail rail_electric rail_fast ship" speed="13.89" length="8.62" shape="393.10,704.46 391.34,696.02"/>
    </edge>
    <edge id=":1760085662_1" function="internal">
        <lane id=":1760085662_1_0" index="0" disallow="tram rail_urban rail rail_electric rail_fast ship" speed="11.90" length="8.60" shape="396.55,702.53 394.58,700.88 393.13,699.73 392.08,698.36 391.34,696.02"/>
    </edge>
    <edge id=":1760085663_0" function="internal">
        <lane id=":1760085663_0_0" index="0" disallow="tram rail_urban rail rail_electric rail_fast ship" speed="11.93" length="8.61" shape="421.65,727.90 420.90,725.56 419.86,724.18 418.41,723.04 416.43,721.38"/>
    </edge>
    <edge id=":1760085663_1" function="internal">
        <lane id=":1760085663_1_0" index="0" disallow="tram rail_urban rail rail_electric rail_fast ship" speed="13.89" length="8.63" shape="421.65,727.90 419.88,719.45"/>
        <lane id=":1760085663_1_1" index="1" disallow="tram rail_urban rail rail_electric rail_fast ship" speed="13.89" length="8.63" shape="424.78,727.24 423.01,718.80"/>
        <lane id=":1760085663_1_2" index="2" disallow="tram rail_urban rail rail_electric rail_fast ship" speed="13.89" length="8.63" shape="427.92,726.58 426.14,718.14"/>
    </edge>
    <edge id=":1760085665_0" function="internal">
        <lane id=":1760085665_0_0" index="0" disallow="tram rail_urban rail rail_electric rail_fast ship" speed="13.89" length="5.00" shape="400.56,740.19 399.53,735.30"/>
    </edge>
    <edge id=":1760085666_0" function="internal">
        <lane id=":1760085666_0_0" index="0" disallow="tram rail_urban rail rail_electric rail_fast ship" speed="13.89" length="0.30" shape="457.02,814.52 457.08,814.81"/>
        <lane id=":1760085666_0_1" index="1" disallow="tram rail_urban rail rail_electric rail_fast ship" speed="13.89" length="0.30" shape="453.89,815.17 453.95,815.46"/>
        <lane id=":1760085666_0_2" index="2" disallow="tram rail_urban rail rail_electric rail_fast ship" speed="13.89" length="0.30" shape="450.76,815.82 450.82,816.12"/>
    </edge>
    <edge id=":1760085667_0" function="internal">
        <lane id=":1760085667_0_0" index="0" disallow="tram rail_urban rail rail_electric rail_fast ship" speed="8.33" length="0.10" shape="493.28,823.44 493.28,823.44"/>
    </edge>
    <edge id=":1760085668_0" function="internal">
        <lane id=":1760085668_0_0" index="0" disallow="tram rail_urban rail rail_electric rail_fast ship" speed="13.89" length="5.50" shape="473.13,824.65 467.63,824.91"/>
    </edge>
    <edge id=":1760085669_0" function="internal">
        <lane id=":1760085669_0_0" index="0" disallow="tram rail_urban rail rail_electric rail_fast ship" speed="13.89" length="5.53" shape="434.17,826.53 428.65,826.79"/>
    </edge>
    <edge id=":1760085670_0" function="internal">
        <lane id=":1760085670_0_0" index="0" disallow="tram rail_urban rail rail_electric rail_fast ship" speed="13.89" length="5.00" shape="485.93,831.88 487.04,836.76"/>
    </edge>
    <edge id=":1760085673_0" function="internal">
        <lane id=":1760085673_0_0" index="0" disallow="tram rail_urban rail rail_electric rail_fast ship" speed="13.89" length="5.16" shape="461.58,836.42 462.63,841.48"/>
        <lane id=":1760085673_0_1" index="1" disallow="tram rail_urban rail rail_electric rail_fast ship" speed="13.89" length="5.16" shape="458.44,837.07 459.49,842.13"/>
        <lane id=":1760085673_0_2" index="2" disallow="tram rail_urban rail rail_electric rail_fast ship" speed="13.89" length="5.16" shape="455.31,837.72 456.36,842.78"/>
    </edge>
    <edge id=":1760085674_0" function="internal">
        <lane id=":1760085674_0_0" index="0" disallow="tram rail_urban rail rail_electric rail_fast ship" speed="13.89" length="5.01" shape="421.98,842.81 420.95,837.91"/>
    </edge>
    <edge id=":1760085675_0" function="internal">
        <lane id=":1760085675_0_0" index="0" disallow="tram rail_urban rail rail_electric rail_fast ship" speed="13.89" length="5.19" shape="446.19,844.73 445.12,839.65"/>
        <lane id=":1760085675_0_1" index="1" disallow="tram rail_urban rail rail_electric rail_fast ship" speed="13.89" length="5.19" shape="449.32,844.07 448.26,838.99"/>
        <lane id=":1760085675_0_2" index="2" disallow="tram rail_urban rail rail_electric rail_fast ship" speed="13.89" length="5.19" shape="452.45,843.41 451.39,838.34"/>
    </edge>
    <edge id=":1760085677_0" function="internal">
        <lane id=":1760085677_0_0" index="0" disallow="tram rail_urban rail rail_electric rail_fast ship" speed="13.89" length="16.05" shape="497.63,883.40 501.66,898.94"/>
    </edge>
    <edge id=":1760085677_1" function="internal">
        <lane id=":1760085677_1_0" index="0" allow="pedestrian bus delivery bicycle" speed="9.72" length="16.05" shape="497.63,883.40 498.17,887.26 498.28,891.36 498.20,895.49 498.15,899.41"/>
    </edge>
    <edge id=":1760085679_0" function="internal">
        <lane id=":1760085679_0_0" index="0" disallow="tram rail_urban rail rail_electric rail_fast ship" speed="13.89" length="27.19" shape="438.71,934.74 435.75,907.71"/>
    </edge>
    <edge id=":1760085679_1" function="internal">
        <lane id=":1760085679_1_0" index="0" allow="pedestrian bus delivery bicycle" speed="9.72" length="27.29" shape="445.62,933.14 443.66,927.82 440.57,920.46 437.54,913.07 435.75,907.71"/>
    </edge>
    <edge id=":1760085684_0" function="internal">
        <lane id=":1760085684_0_0" index="0" allow="pedestrian bus delivery bicycle" speed="5.56" length="5.62" shape="452.69,963.27 452.79,961.61 452.80,960.46 452.64,959.33 452.26,957.72"/>
    </edge>
    <edge id=":1760085686_0" function="internal">
        <lane id=":1760085686_0_0" index="0" disallow="tram rail_urban rail rail_electric rail_fast ship" speed="13.89" length="5.40" shape="444.00,965.29 443.54,963.69 443.27,962.59 443.05,961.47 442.78,959.83"/>
        <lane id=":1760085686_0_1" index="1" disallow="tram rail_urban rail rail_electric rail_fast ship" speed="13.89" length="5.40" shape="447.07,964.39 446.65,962.91 446.39,961.88 446.19,960.84 445.94,959.32"/>
    </edge>
    <edge id=":1760085688_0" function="internal">
        <lane id=":1760085688_0_0" index="0" disallow="tram rail_urban rail rail_electric rail_fast ship" speed="13.89" length="5.01" shape="514.14,961.21 514.94,966.16"/>
    </edge>
    <edge id=":1760085689_0" function="internal">
        <lane id=":1760085689_0_0" index="0" disallow="tram rail_urban rail rail_electric rail_fast ship" speed="13.89" length="5.05" shape="487.71,962.46 488.73,967.40"/>
        <lane id=":1760085689_0_1" index="1" disallow="tram rail_urban rail rail_electric rail_fast ship" speed="13.89" length="5.05" shape="484.57,963.11 485.60,968.05"/>
        <lane id=":1760085689_0_2" index="2" disallow="tram rail_urban rail rail_electric rail_fast ship" speed="13.89" length="5.05" shape="481.44,963.76 482.47,968.70"/>
    </edge>
    <edge id=":1760085691_0" function="internal">
        <lane id=":1760085691_0_0" index="0" disallow="tram rail_urban rail rail_electric rail_fast ship" speed="13.89" length="5.01" shape="472.67,970.76 471.64,965.86"/>
        <lane id=":1760085691_0_1" index="1" disallow="tram rail_urban rail rail_electric rail_fast ship" speed="13.89" length="5.01" shape="475.80,970.10 474.77,965.20"/>
        <lane id=":1760085691_0_2" index="2" disallow="tram rail_urban rail rail_electric rail_fast ship" speed="13.89" length="5.01" shape="478.93,969.44 477.90,964.54"/>
    </edge>
    <edge id=":1760085693_0" function="internal">
        <lane id=":1760085693_0_0" index="0" disallow="tram rail_urban rail rail_electric rail_fast ship" speed="13.89" length="5.42" shape="499.25,979.62 504.65,979.23"/>
    </edge>
    <edge id=":1760085694_0" function="internal">
        <lane id=":1760085694_0_0" index="0" disallow="tram rail_urban rail rail_electric rail_fast ship" speed="13.89" length="5.33" shape="461.18,983.63 466.48,983.07"/>
    </edge>
    <edge id=":1760085695_0" function="internal">
        <lane id=":1760085695_0_0" index="0" disallow="tram rail_urban rail rail_electric rail_fast ship" speed="8.33" length="5.22" shape="435.85,985.46 441.06,985.15"/>
    </edge>
    <edge id=":1760085696_0" function="internal">
        <lane id=":1760085696_0_0" index="0" disallow="tram rail_urban rail rail_electric rail_fast ship" speed="13.89" length="0.30" shape="477.16,992.11 477.10,991.81"/>
        <lane id=":1760085696_0_1" index="1" disallow="tram rail_urban rail rail_electric rail_fast ship" speed="13.89" length="0.30" shape="480.29,991.45 480.23,991.15"/>
        <lane id=":1760085696_0_2" index="2" disallow="tram rail_urban rail rail_electric rail_fast ship" speed="13.89" length="0.30" shape="483.42,990.79 483.36,990.50"/>
    </edge>
    <edge id=":1760085698_0" function="internal">
        <lane id=":1760085698_0_0" index="0" disallow="tram rail_urban rail rail_electric rail_fast ship" speed="13.89" length="5.00" shape="454.41,999.25 453.38,994.36"/>
    </edge>
    <edge id=":1760085699_0" function="internal">
        <lane id=":1760085699_0_0" index="0" disallow="tram rail_urban rail rail_electric rail_fast ship" speed="13.89" length="0.30" shape="515.42,1095.76 515.48,1096.06"/>
        <lane id=":1760085699_0_1" index="1" disallow="tram rail_urban rail rail_electric rail_fast ship" speed="13.89" length="0.30" shape="512.28,1096.42 512.34,1096.71"/>
        <lane id=":1760085699_0_2" index="2" disallow="tram rail_urban rail rail_electric rail_fast ship" speed="13.89" length="0.30" shape="509.15,1097.07 509.21,1097.36"/>
    </edge>
    <edge id=":1760085702_0" function="internal">
        <lane id=":1760085702_0_0" index="0" disallow="pedestrian tram rail_urban rail rail_electric rail_fast ship" speed="13.89" length="5.59" shape="530.69,1113.32 525.15,1113.85"/>
        <lane id=":1760085702_0_1" index="1" disallow="pedestrian tram rail_urban rail rail_electric rail_fast ship" speed="13.89" length="5.59" shape="530.41,1110.13 524.82,1110.67"/>
    </edge>
    <edge id=":1760085703_0" function="internal">
        <lane id=":1760085703_0_0" index="0" disallow="pedestrian tram rail_urban rail rail_electric rail_fast ship" speed="13.89" length="5.35" shape="493.87,1115.40 488.55,1115.94"/>
    </edge>
    <edge id=":1760085704_0" function="internal">
        <lane id=":1760085704_0_0" index="0" disallow="tram rail_urban rail rail_electric rail_fast ship" speed="13.89" length="0.30" shape="465.57,1116.72 465.28,1116.72"/>
    </edge>
    <edge id=":1950481126_0" function="internal">
        <lane id=":1950481126_0_0" index="0" disallow="tram rail_urban rail rail_electric rail_fast ship" speed="13.89" length="0.30" shape="929.84,532.37 929.86,532.67"/>
        <lane id=":1950481126_0_1" index="1" disallow="tram rail_urban rail rail_electric rail_fast ship" speed="13.89" length="0.30" shape="926.65,532.60 926.67,532.90"/>
        <lane id=":1950481126_0_2" index="2" disallow="tram rail_urban rail rail_electric rail_fast ship" speed="13.89" length="0.30" shape="923.45,532.83 923.48,533.12"/>